# generated using pymatgen
data_H4C
_symmetry_space_group_name_H-M   'P 1'
_cell_length_a   4.97352743
_cell_length_b   4.97352743
_cell_length_c   4.97352743
_cell_angle_alpha   90.00000000
_cell_angle_beta   90.00000000
_cell_angle_gamma   90.00000000
_symmetry_Int_Tables_number   1
_chemical_formula_structural   H4C
_chemical_formula_sum   'H8 C2'
_cell_volume   123.02505087
_cell_formula_units_Z   2
loop_
 _symmetry_equiv_pos_site_id
 _symmetry_equiv_pos_as_xyz
  1  'x, y, z'
loop_
 _atom_site_type_symbol
 _atom_site_label
 _atom_site_symmetry_multiplicity
 _atom_site_fract_x
 _atom_site_fract_y
 _atom_site_fract_z
 _atom_site_occupancy
  H  H1  1  0.127200  0.127200  0.127200  1
  H  H2  1  0.872800  0.872800  0.127200  1
  H  H3  1  0.372800  0.627200  0.372800  1
  H  H4  1  0.627200  0.372800  0.372800  1
  H  H5  1  0.627200  0.627200  0.627200  1
  H  H6  1  0.372800  0.372800  0.627200  1
  H  H7  1  0.872800  0.127200  0.872800  1
  H  H8  1  0.127200  0.872800  0.872800  1
  C  C9  1  0.000000  0.000000  0.000000  1
  C  C10  1  0.500000  0.500000  0.500000  1
